Circuit: * C:\Users\Daniel\Desktop\SAR_ADC_FINALE\AND_test.asc

Instance "m:x1:x1:§pmoda": Length shorter than recommended for a level 1 MOSFET.
Instance "m:x1:x1:§pmodb": Length shorter than recommended for a level 1 MOSFET.
Instance "m:x1:x1:§nmoda": Length shorter than recommended for a level 1 MOSFET.
Instance "m:x1:x1:§nmodb": Length shorter than recommended for a level 1 MOSFET.
Instance "m:x1:x2:§pmoda": Length shorter than recommended for a level 1 MOSFET.
Instance "m:x1:x2:§nmodb": Length shorter than recommended for a level 1 MOSFET.
Direct Newton iteration for .op point succeeded.

Date: Sat Jun 10 09:19:30 2023
Total elapsed time: 0.097 seconds.

tnom = 27
temp = 27
method = modified trap
totiter = 9505
traniter = 9493
tranpoints = 3765
accept = 3096
rejected = 669
matrix size = 9
fillins = 0
solver = Normal
Avg thread counts: 1.1/1.2/1.2/1.1
Matrix Compiler1: 422 bytes object code size  0.2/0.3/[0.1]
Matrix Compiler2: 731 bytes object code size  0.2/0.3/[0.1]

