Circuit: * C:\Users\Daniel\Desktop\SAR_ADC_FINALE\current_ladder_test.asc

Direct Newton iteration failed to find .op point.  (Use ".option noopiter" to skip.)
Starting Gmin stepping
Gmin = 10
Gmin = 1.07374
Gmin = 0.115292
Gmin = 0.0123794
Gmin = 0.00132923
Gmin = 0.000142725
Gmin = 1.5325e-05
Gmin = 1.6455e-06
Gmin = 1.76685e-07
Gmin = 1.89714e-08
Gmin = 2.03704e-09
Gmin = 2.18725e-10
Gmin = 2.34854e-11
Gmin = 2.52173e-12
Gmin = 2.70769e-13
Gmin = 0
Gmin stepping succeeded in finding the operating point.

Ignoring empty pin current: Ix(x1:vref)
Ignoring empty pin current: Ix(x1:vref)

Date: Sat Jun 10 09:29:31 2023
Total elapsed time: 0.123 seconds.

tnom = 27
temp = 27
method = modified trap
totiter = 7475
traniter = 7125
tranpoints = 2964
accept = 2429
rejected = 535
matrix size = 26
fillins = 2
solver = Normal
Avg thread counts: 1.1/1.2/1.2/1.1
Matrix Compiler1: 894 bytes object code size  0.8/0.4/[0.1]
Matrix Compiler2: off  [0.2]/0.3/0.3

