Circuit: * C:\Users\Daniel\Desktop\SAR_ADC_FINALE\MUX21_test.asc

Instance "m:x2:x1:§pmoda": Length shorter than recommended for a level 1 MOSFET.
Instance "m:x2:x1:§nmoda": Length shorter than recommended for a level 1 MOSFET.
Instance "m:x2:x2:§pmoda": Length shorter than recommended for a level 1 MOSFET.
Instance "m:x2:x2:§nmoda": Length shorter than recommended for a level 1 MOSFET.
Instance "m:x2:x3:§pmoda": Length shorter than recommended for a level 1 MOSFET.
Instance "m:x2:x3:§nmodb": Length shorter than recommended for a level 1 MOSFET.
Direct Newton iteration for .op point succeeded.

Date: Sat Jun 10 09:18:25 2023
Total elapsed time: 0.111 seconds.

tnom = 27
temp = 27
method = modified trap
totiter = 6453
traniter = 6443
tranpoints = 2916
accept = 2493
rejected = 423
matrix size = 14
fillins = 0
solver = Normal
Avg thread counts: 1.1/1.2/1.2/1.1
Matrix Compiler1: 654 bytes object code size  0.3/0.3/[0.2]
Matrix Compiler2: 1.18 KB object code size  0.3/0.4/[0.2]

