Circuit: * C:\Users\Daniel\Desktop\SAR_ADC_FINALE\NOT_test.asc

Instance "m:x1:§pmoda": Length shorter than recommended for a level 1 MOSFET.
Instance "m:x1:§nmodb": Length shorter than recommended for a level 1 MOSFET.
Direct Newton iteration for .op point succeeded.

Date: Sat Jun 10 09:24:26 2023
Total elapsed time: 0.188 seconds.

tnom = 27
temp = 27
method = modified trap
totiter = 6360
traniter = 6353
tranpoints = 2985
accept = 2471
rejected = 514
matrix size = 5
fillins = 0
solver = Normal
Avg thread counts: 1.1/1.2/1.2/1.1
Matrix Compiler1: 222 bytes object code size  0.2/0.1/[0.1]
Matrix Compiler2: 311 bytes object code size  0.1/0.2/[0.1]

