Circuit: * C:\Users\Daniel\Desktop\SAR_ADC_FINALE\SAR - noisy.asc

WARNING: Less than two connections to node vref.  This node is used by v6.
Instance "m:x4:x1:x1:x1:x1:§pmoda": Length shorter than recommended for a level 1 MOSFET.
Instance "m:x4:x1:x1:x1:x1:§nmoda": Length shorter than recommended for a level 1 MOSFET.
Instance "m:x4:x1:x1:x1:x2:§pmoda": Length shorter than recommended for a level 1 MOSFET.
Instance "m:x4:x1:x1:x1:x2:§nmoda": Length shorter than recommended for a level 1 MOSFET.
Instance "m:x4:x1:x1:x1:x3:§pmoda": Length shorter than recommended for a level 1 MOSFET.
Instance "m:x4:x1:x1:x1:x3:§nmodb": Length shorter than recommended for a level 1 MOSFET.
Instance "m:x4:x1:x1:x2:§pmoda": Length shorter than recommended for a level 1 MOSFET.
Instance "m:x4:x1:x1:x2:§nmodb": Length shorter than recommended for a level 1 MOSFET.
Instance "m:x4:x1:x1:x3:§pmoda": Length shorter than recommended for a level 1 MOSFET.
Instance "m:x4:x1:x1:x3:§nmodb": Length shorter than recommended for a level 1 MOSFET.
Instance "m:x4:x1:x2:x1:x1:§pmoda": Length shorter than recommended for a level 1 MOSFET.
Instance "m:x4:x1:x2:x1:x1:§nmoda": Length shorter than recommended for a level 1 MOSFET.
Instance "m:x4:x1:x2:x1:x2:§pmoda": Length shorter than recommended for a level 1 MOSFET.
Instance "m:x4:x1:x2:x1:x2:§nmoda": Length shorter than recommended for a level 1 MOSFET.
Instance "m:x4:x1:x2:x1:x3:§pmoda": Length shorter than recommended for a level 1 MOSFET.
Instance "m:x4:x1:x2:x1:x3:§nmodb": Length shorter than recommended for a level 1 MOSFET.
Instance "m:x4:x1:x2:x2:§pmoda": Length shorter than recommended for a level 1 MOSFET.
Instance "m:x4:x1:x2:x2:§nmodb": Length shorter than recommended for a level 1 MOSFET.
Instance "m:x4:x1:x2:x3:§pmoda": Length shorter than recommended for a level 1 MOSFET.
Instance "m:x4:x1:x2:x3:§nmodb": Length shorter than recommended for a level 1 MOSFET.
Instance "m:x4:x1:x3:§pmoda": Length shorter than recommended for a level 1 MOSFET.
Instance "m:x4:x1:x3:§nmodb": Length shorter than recommended for a level 1 MOSFET.
Instance "m:x4:x1:x4:§pmoda": Length shorter than recommended for a level 1 MOSFET.
Instance "m:x4:x1:x4:§nmodb": Length shorter than recommended for a level 1 MOSFET.
Instance "m:x4:x2:x1:x1:x1:§pmoda": Length shorter than recommended for a level 1 MOSFET.
Instance "m:x4:x2:x1:x1:x1:§nmoda": Length shorter than recommended for a level 1 MOSFET.
Instance "m:x4:x2:x1:x1:x2:§pmoda": Length shorter than recommended for a level 1 MOSFET.
Instance "m:x4:x2:x1:x1:x2:§nmoda": Length shorter than recommended for a level 1 MOSFET.
Instance "m:x4:x2:x1:x1:x3:§pmoda": Length shorter than recommended for a level 1 MOSFET.
Instance "m:x4:x2:x1:x1:x3:§nmodb": Length shorter than recommended for a level 1 MOSFET.
Instance "m:x4:x2:x1:x2:§pmoda": Length shorter than recommended for a level 1 MOSFET.
Instance "m:x4:x2:x1:x2:§nmodb": Length shorter than recommended for a level 1 MOSFET.
Instance "m:x4:x2:x1:x3:§pmoda": Length shorter than recommended for a level 1 MOSFET.
Instance "m:x4:x2:x1:x3:§nmodb": Length shorter than recommended for a level 1 MOSFET.
Instance "m:x4:x2:x2:x1:x1:§pmoda": Length shorter than recommended for a level 1 MOSFET.
Instance "m:x4:x2:x2:x1:x1:§nmoda": Length shorter than recommended for a level 1 MOSFET.
Instance "m:x4:x2:x2:x1:x2:§pmoda": Length shorter than recommended for a level 1 MOSFET.
Instance "m:x4:x2:x2:x1:x2:§nmoda": Length shorter than recommended for a level 1 MOSFET.
Instance "m:x4:x2:x2:x1:x3:§pmoda": Length shorter than recommended for a level 1 MOSFET.
Instance "m:x4:x2:x2:x1:x3:§nmodb": Length shorter than recommended for a level 1 MOSFET.
Instance "m:x4:x2:x2:x2:§pmoda": Length shorter than recommended for a level 1 MOSFET.
Instance "m:x4:x2:x2:x2:§nmodb": Length shorter than recommended for a level 1 MOSFET.
Instance "m:x4:x2:x2:x3:§pmoda": Length shorter than recommended for a level 1 MOSFET.
Instance "m:x4:x2:x2:x3:§nmodb": Length shorter than recommended for a level 1 MOSFET.
Instance "m:x4:x2:x3:§pmoda": Length shorter than recommended for a level 1 MOSFET.
Instance "m:x4:x2:x3:§nmodb": Length shorter than recommended for a level 1 MOSFET.
Instance "m:x4:x2:x4:§pmoda": Length shorter than recommended for a level 1 MOSFET.
Instance "m:x4:x2:x4:§nmodb": Length shorter than recommended for a level 1 MOSFET.
Instance "m:x4:x3:x1:x1:x1:§pmoda": Length shorter than recommended for a level 1 MOSFET.
Instance "m:x4:x3:x1:x1:x1:§nmoda": Length shorter than recommended for a level 1 MOSFET.
Instance "m:x4:x3:x1:x1:x2:§pmoda": Length shorter than recommended for a level 1 MOSFET.
Instance "m:x4:x3:x1:x1:x2:§nmoda": Length shorter than recommended for a level 1 MOSFET.
Instance "m:x4:x3:x1:x1:x3:§pmoda": Length shorter than recommended for a level 1 MOSFET.
Instance "m:x4:x3:x1:x1:x3:§nmodb": Length shorter than recommended for a level 1 MOSFET.
Instance "m:x4:x3:x1:x2:§pmoda": Length shorter than recommended for a level 1 MOSFET.
Instance "m:x4:x3:x1:x2:§nmodb": Length shorter than recommended for a level 1 MOSFET.
Instance "m:x4:x3:x1:x3:§pmoda": Length shorter than recommended for a level 1 MOSFET.
Instance "m:x4:x3:x1:x3:§nmodb": Length shorter than recommended for a level 1 MOSFET.
Instance "m:x4:x3:x2:x1:x1:§pmoda": Length shorter than recommended for a level 1 MOSFET.
Instance "m:x4:x3:x2:x1:x1:§nmoda": Length shorter than recommended for a level 1 MOSFET.
Instance "m:x4:x3:x2:x1:x2:§pmoda": Length shorter than recommended for a level 1 MOSFET.
Instance "m:x4:x3:x2:x1:x2:§nmoda": Length shorter than recommended for a level 1 MOSFET.
Instance "m:x4:x3:x2:x1:x3:§pmoda": Length shorter than recommended for a level 1 MOSFET.
Instance "m:x4:x3:x2:x1:x3:§nmodb": Length shorter than recommended for a level 1 MOSFET.
Instance "m:x4:x3:x2:x2:§pmoda": Length shorter than recommended for a level 1 MOSFET.
Instance "m:x4:x3:x2:x2:§nmodb": Length shorter than recommended for a level 1 MOSFET.
Instance "m:x4:x3:x2:x3:§pmoda": Length shorter than recommended for a level 1 MOSFET.
Instance "m:x4:x3:x2:x3:§nmodb": Length shorter than recommended for a level 1 MOSFET.
Instance "m:x4:x3:x3:§pmoda": Length shorter than recommended for a level 1 MOSFET.
Instance "m:x4:x3:x3:§nmodb": Length shorter than recommended for a level 1 MOSFET.
Instance "m:x4:x3:x4:§pmoda": Length shorter than recommended for a level 1 MOSFET.
Instance "m:x4:x3:x4:§nmodb": Length shorter than recommended for a level 1 MOSFET.
Instance "m:x4:x4:x1:x1:x1:§pmoda": Length shorter than recommended for a level 1 MOSFET.
Instance "m:x4:x4:x1:x1:x1:§nmoda": Length shorter than recommended for a level 1 MOSFET.
Instance "m:x4:x4:x1:x1:x2:§pmoda": Length shorter than recommended for a level 1 MOSFET.
Instance "m:x4:x4:x1:x1:x2:§nmoda": Length shorter than recommended for a level 1 MOSFET.
Instance "m:x4:x4:x1:x1:x3:§pmoda": Length shorter than recommended for a level 1 MOSFET.
Instance "m:x4:x4:x1:x1:x3:§nmodb": Length shorter than recommended for a level 1 MOSFET.
Instance "m:x4:x4:x1:x2:§pmoda": Length shorter than recommended for a level 1 MOSFET.
Instance "m:x4:x4:x1:x2:§nmodb": Length shorter than recommended for a level 1 MOSFET.
Instance "m:x4:x4:x1:x3:§pmoda": Length shorter than recommended for a level 1 MOSFET.
Instance "m:x4:x4:x1:x3:§nmodb": Length shorter than recommended for a level 1 MOSFET.
Instance "m:x4:x4:x2:x1:x1:§pmoda": Length shorter than recommended for a level 1 MOSFET.
Instance "m:x4:x4:x2:x1:x1:§nmoda": Length shorter than recommended for a level 1 MOSFET.
Instance "m:x4:x4:x2:x1:x2:§pmoda": Length shorter than recommended for a level 1 MOSFET.
Instance "m:x4:x4:x2:x1:x2:§nmoda": Length shorter than recommended for a level 1 MOSFET.
Instance "m:x4:x4:x2:x1:x3:§pmoda": Length shorter than recommended for a level 1 MOSFET.
Instance "m:x4:x4:x2:x1:x3:§nmodb": Length shorter than recommended for a level 1 MOSFET.
Instance "m:x4:x4:x2:x2:§pmoda": Length shorter than recommended for a level 1 MOSFET.
Instance "m:x4:x4:x2:x2:§nmodb": Length shorter than recommended for a level 1 MOSFET.
Instance "m:x4:x4:x2:x3:§pmoda": Length shorter than recommended for a level 1 MOSFET.
Instance "m:x4:x4:x2:x3:§nmodb": Length shorter than recommended for a level 1 MOSFET.
Instance "m:x4:x4:x3:§pmoda": Length shorter than recommended for a level 1 MOSFET.
Instance "m:x4:x4:x3:§nmodb": Length shorter than recommended for a level 1 MOSFET.
Instance "m:x4:x4:x4:§pmoda": Length shorter than recommended for a level 1 MOSFET.
Instance "m:x4:x4:x4:§nmodb": Length shorter than recommended for a level 1 MOSFET.
Instance "m:x8:x1:x1:x1:x1:§pmoda": Length shorter than recommended for a level 1 MOSFET.
Instance "m:x8:x1:x1:x1:x1:§nmoda": Length shorter than recommended for a level 1 MOSFET.
Instance "m:x8:x1:x1:x1:x2:§pmoda": Length shorter than recommended for a level 1 MOSFET.
Instance "m:x8:x1:x1:x1:x2:§nmoda": Length shorter than recommended for a level 1 MOSFET.
Instance "m:x8:x1:x1:x1:x3:§pmoda": Length shorter than recommended for a level 1 MOSFET.
Instance "m:x8:x1:x1:x1:x3:§nmodb": Length shorter than recommended for a level 1 MOSFET.
Instance "m:x8:x1:x1:x2:§pmoda": Length shorter than recommended for a level 1 MOSFET.
Instance "m:x8:x1:x1:x2:§nmodb": Length shorter than recommended for a level 1 MOSFET.
Instance "m:x8:x1:x1:x3:§pmoda": Length shorter than recommended for a level 1 MOSFET.
Instance "m:x8:x1:x1:x3:§nmodb": Length shorter than recommended for a level 1 MOSFET.
Instance "m:x8:x1:x2:x1:x1:§pmoda": Length shorter than recommended for a level 1 MOSFET.
Instance "m:x8:x1:x2:x1:x1:§nmoda": Length shorter than recommended for a level 1 MOSFET.
Instance "m:x8:x1:x2:x1:x2:§pmoda": Length shorter than recommended for a level 1 MOSFET.
Instance "m:x8:x1:x2:x1:x2:§nmoda": Length shorter than recommended for a level 1 MOSFET.
Instance "m:x8:x1:x2:x1:x3:§pmoda": Length shorter than recommended for a level 1 MOSFET.
Instance "m:x8:x1:x2:x1:x3:§nmodb": Length shorter than recommended for a level 1 MOSFET.
Instance "m:x8:x1:x2:x2:§pmoda": Length shorter than recommended for a level 1 MOSFET.
Instance "m:x8:x1:x2:x2:§nmodb": Length shorter than recommended for a level 1 MOSFET.
Instance "m:x8:x1:x2:x3:§pmoda": Length shorter than recommended for a level 1 MOSFET.
Instance "m:x8:x1:x2:x3:§nmodb": Length shorter than recommended for a level 1 MOSFET.
Instance "m:x8:x1:x3:§pmoda": Length shorter than recommended for a level 1 MOSFET.
Instance "m:x8:x1:x3:§nmodb": Length shorter than recommended for a level 1 MOSFET.
Instance "m:x8:x1:x4:§pmoda": Length shorter than recommended for a level 1 MOSFET.
Instance "m:x8:x1:x4:§nmodb": Length shorter than recommended for a level 1 MOSFET.
Instance "m:x8:x2:x1:x1:x1:§pmoda": Length shorter than recommended for a level 1 MOSFET.
Instance "m:x8:x2:x1:x1:x1:§nmoda": Length shorter than recommended for a level 1 MOSFET.
Instance "m:x8:x2:x1:x1:x2:§pmoda": Length shorter than recommended for a level 1 MOSFET.
Instance "m:x8:x2:x1:x1:x2:§nmoda": Length shorter than recommended for a level 1 MOSFET.
Instance "m:x8:x2:x1:x1:x3:§pmoda": Length shorter than recommended for a level 1 MOSFET.
Instance "m:x8:x2:x1:x1:x3:§nmodb": Length shorter than recommended for a level 1 MOSFET.
Instance "m:x8:x2:x1:x2:§pmoda": Length shorter than recommended for a level 1 MOSFET.
Instance "m:x8:x2:x1:x2:§nmodb": Length shorter than recommended for a level 1 MOSFET.
Instance "m:x8:x2:x1:x3:§pmoda": Length shorter than recommended for a level 1 MOSFET.
Instance "m:x8:x2:x1:x3:§nmodb": Length shorter than recommended for a level 1 MOSFET.
Instance "m:x8:x2:x2:x1:x1:§pmoda": Length shorter than recommended for a level 1 MOSFET.
Instance "m:x8:x2:x2:x1:x1:§nmoda": Length shorter than recommended for a level 1 MOSFET.
Instance "m:x8:x2:x2:x1:x2:§pmoda": Length shorter than recommended for a level 1 MOSFET.
Instance "m:x8:x2:x2:x1:x2:§nmoda": Length shorter than recommended for a level 1 MOSFET.
Instance "m:x8:x2:x2:x1:x3:§pmoda": Length shorter than recommended for a level 1 MOSFET.
Instance "m:x8:x2:x2:x1:x3:§nmodb": Length shorter than recommended for a level 1 MOSFET.
Instance "m:x8:x2:x2:x2:§pmoda": Length shorter than recommended for a level 1 MOSFET.
Instance "m:x8:x2:x2:x2:§nmodb": Length shorter than recommended for a level 1 MOSFET.
Instance "m:x8:x2:x2:x3:§pmoda": Length shorter than recommended for a level 1 MOSFET.
Instance "m:x8:x2:x2:x3:§nmodb": Length shorter than recommended for a level 1 MOSFET.
Instance "m:x8:x2:x3:§pmoda": Length shorter than recommended for a level 1 MOSFET.
Instance "m:x8:x2:x3:§nmodb": Length shorter than recommended for a level 1 MOSFET.
Instance "m:x8:x2:x4:§pmoda": Length shorter than recommended for a level 1 MOSFET.
Instance "m:x8:x2:x4:§nmodb": Length shorter than recommended for a level 1 MOSFET.
Instance "m:x8:x3:x1:x1:x1:§pmoda": Length shorter than recommended for a level 1 MOSFET.
Instance "m:x8:x3:x1:x1:x1:§nmoda": Length shorter than recommended for a level 1 MOSFET.
Instance "m:x8:x3:x1:x1:x2:§pmoda": Length shorter than recommended for a level 1 MOSFET.
Instance "m:x8:x3:x1:x1:x2:§nmoda": Length shorter than recommended for a level 1 MOSFET.
Instance "m:x8:x3:x1:x1:x3:§pmoda": Length shorter than recommended for a level 1 MOSFET.
Instance "m:x8:x3:x1:x1:x3:§nmodb": Length shorter than recommended for a level 1 MOSFET.
Instance "m:x8:x3:x1:x2:§pmoda": Length shorter than recommended for a level 1 MOSFET.
Instance "m:x8:x3:x1:x2:§nmodb": Length shorter than recommended for a level 1 MOSFET.
Instance "m:x8:x3:x1:x3:§pmoda": Length shorter than recommended for a level 1 MOSFET.
Instance "m:x8:x3:x1:x3:§nmodb": Length shorter than recommended for a level 1 MOSFET.
Instance "m:x8:x3:x2:x1:x1:§pmoda": Length shorter than recommended for a level 1 MOSFET.
Instance "m:x8:x3:x2:x1:x1:§nmoda": Length shorter than recommended for a level 1 MOSFET.
Instance "m:x8:x3:x2:x1:x2:§pmoda": Length shorter than recommended for a level 1 MOSFET.
Instance "m:x8:x3:x2:x1:x2:§nmoda": Length shorter than recommended for a level 1 MOSFET.
Instance "m:x8:x3:x2:x1:x3:§pmoda": Length shorter than recommended for a level 1 MOSFET.
Instance "m:x8:x3:x2:x1:x3:§nmodb": Length shorter than recommended for a level 1 MOSFET.
Instance "m:x8:x3:x2:x2:§pmoda": Length shorter than recommended for a level 1 MOSFET.
Instance "m:x8:x3:x2:x2:§nmodb": Length shorter than recommended for a level 1 MOSFET.
Instance "m:x8:x3:x2:x3:§pmoda": Length shorter than recommended for a level 1 MOSFET.
Instance "m:x8:x3:x2:x3:§nmodb": Length shorter than recommended for a level 1 MOSFET.
Instance "m:x8:x3:x3:§pmoda": Length shorter than recommended for a level 1 MOSFET.
Instance "m:x8:x3:x3:§nmodb": Length shorter than recommended for a level 1 MOSFET.
Instance "m:x8:x3:x4:§pmoda": Length shorter than recommended for a level 1 MOSFET.
Instance "m:x8:x3:x4:§nmodb": Length shorter than recommended for a level 1 MOSFET.
Instance "m:x8:x4:x1:x1:x1:§pmoda": Length shorter than recommended for a level 1 MOSFET.
Instance "m:x8:x4:x1:x1:x1:§nmoda": Length shorter than recommended for a level 1 MOSFET.
Instance "m:x8:x4:x1:x1:x2:§pmoda": Length shorter than recommended for a level 1 MOSFET.
Instance "m:x8:x4:x1:x1:x2:§nmoda": Length shorter than recommended for a level 1 MOSFET.
Instance "m:x8:x4:x1:x1:x3:§pmoda": Length shorter than recommended for a level 1 MOSFET.
Instance "m:x8:x4:x1:x1:x3:§nmodb": Length shorter than recommended for a level 1 MOSFET.
Instance "m:x8:x4:x1:x2:§pmoda": Length shorter than recommended for a level 1 MOSFET.
Instance "m:x8:x4:x1:x2:§nmodb": Length shorter than recommended for a level 1 MOSFET.
Instance "m:x8:x4:x1:x3:§pmoda": Length shorter than recommended for a level 1 MOSFET.
Instance "m:x8:x4:x1:x3:§nmodb": Length shorter than recommended for a level 1 MOSFET.
Instance "m:x8:x4:x2:x1:x1:§pmoda": Length shorter than recommended for a level 1 MOSFET.
Instance "m:x8:x4:x2:x1:x1:§nmoda": Length shorter than recommended for a level 1 MOSFET.
Instance "m:x8:x4:x2:x1:x2:§pmoda": Length shorter than recommended for a level 1 MOSFET.
Instance "m:x8:x4:x2:x1:x2:§nmoda": Length shorter than recommended for a level 1 MOSFET.
Instance "m:x8:x4:x2:x1:x3:§pmoda": Length shorter than recommended for a level 1 MOSFET.
Instance "m:x8:x4:x2:x1:x3:§nmodb": Length shorter than recommended for a level 1 MOSFET.
Instance "m:x8:x4:x2:x2:§pmoda": Length shorter than recommended for a level 1 MOSFET.
Instance "m:x8:x4:x2:x2:§nmodb": Length shorter than recommended for a level 1 MOSFET.
Instance "m:x8:x4:x2:x3:§pmoda": Length shorter than recommended for a level 1 MOSFET.
Instance "m:x8:x4:x2:x3:§nmodb": Length shorter than recommended for a level 1 MOSFET.
Instance "m:x8:x4:x3:§pmoda": Length shorter than recommended for a level 1 MOSFET.
Instance "m:x8:x4:x3:§nmodb": Length shorter than recommended for a level 1 MOSFET.
Instance "m:x8:x4:x4:§pmoda": Length shorter than recommended for a level 1 MOSFET.
Instance "m:x8:x4:x4:§nmodb": Length shorter than recommended for a level 1 MOSFET.
Instance "m:x16:x1:x1:x1:x1:§pmoda": Length shorter than recommended for a level 1 MOSFET.
Instance "m:x16:x1:x1:x1:x1:§nmoda": Length shorter than recommended for a level 1 MOSFET.
Instance "m:x16:x1:x1:x1:x2:§pmoda": Length shorter than recommended for a level 1 MOSFET.
Instance "m:x16:x1:x1:x1:x2:§nmoda": Length shorter than recommended for a level 1 MOSFET.
Instance "m:x16:x1:x1:x1:x3:§pmoda": Length shorter than recommended for a level 1 MOSFET.
Instance "m:x16:x1:x1:x1:x3:§nmodb": Length shorter than recommended for a level 1 MOSFET.
Instance "m:x16:x1:x1:x2:§pmoda": Length shorter than recommended for a level 1 MOSFET.
Instance "m:x16:x1:x1:x2:§nmodb": Length shorter than recommended for a level 1 MOSFET.
Instance "m:x16:x1:x1:x3:§pmoda": Length shorter than recommended for a level 1 MOSFET.
Instance "m:x16:x1:x1:x3:§nmodb": Length shorter than recommended for a level 1 MOSFET.
Instance "m:x16:x1:x2:x1:x1:§pmoda": Length shorter than recommended for a level 1 MOSFET.
Instance "m:x16:x1:x2:x1:x1:§nmoda": Length shorter than recommended for a level 1 MOSFET.
Instance "m:x16:x1:x2:x1:x2:§pmoda": Length shorter than recommended for a level 1 MOSFET.
Instance "m:x16:x1:x2:x1:x2:§nmoda": Length shorter than recommended for a level 1 MOSFET.
Instance "m:x16:x1:x2:x1:x3:§pmoda": Length shorter than recommended for a level 1 MOSFET.
Instance "m:x16:x1:x2:x1:x3:§nmodb": Length shorter than recommended for a level 1 MOSFET.
Instance "m:x16:x1:x2:x2:§pmoda": Length shorter than recommended for a level 1 MOSFET.
Instance "m:x16:x1:x2:x2:§nmodb": Length shorter than recommended for a level 1 MOSFET.
Instance "m:x16:x1:x2:x3:§pmoda": Length shorter than recommended for a level 1 MOSFET.
Instance "m:x16:x1:x2:x3:§nmodb": Length shorter than recommended for a level 1 MOSFET.
Instance "m:x16:x1:x3:§pmoda": Length shorter than recommended for a level 1 MOSFET.
Instance "m:x16:x1:x3:§nmodb": Length shorter than recommended for a level 1 MOSFET.
Instance "m:x16:x1:x4:§pmoda": Length shorter than recommended for a level 1 MOSFET.
Instance "m:x16:x1:x4:§nmodb": Length shorter than recommended for a level 1 MOSFET.
Instance "m:x16:x2:x1:x1:x1:§pmoda": Length shorter than recommended for a level 1 MOSFET.
Instance "m:x16:x2:x1:x1:x1:§nmoda": Length shorter than recommended for a level 1 MOSFET.
Instance "m:x16:x2:x1:x1:x2:§pmoda": Length shorter than recommended for a level 1 MOSFET.
Instance "m:x16:x2:x1:x1:x2:§nmoda": Length shorter than recommended for a level 1 MOSFET.
Instance "m:x16:x2:x1:x1:x3:§pmoda": Length shorter than recommended for a level 1 MOSFET.
Instance "m:x16:x2:x1:x1:x3:§nmodb": Length shorter than recommended for a level 1 MOSFET.
Instance "m:x16:x2:x1:x2:§pmoda": Length shorter than recommended for a level 1 MOSFET.
Instance "m:x16:x2:x1:x2:§nmodb": Length shorter than recommended for a level 1 MOSFET.
Instance "m:x16:x2:x1:x3:§pmoda": Length shorter than recommended for a level 1 MOSFET.
Instance "m:x16:x2:x1:x3:§nmodb": Length shorter than recommended for a level 1 MOSFET.
Instance "m:x16:x2:x2:x1:x1:§pmoda": Length shorter than recommended for a level 1 MOSFET.
Instance "m:x16:x2:x2:x1:x1:§nmoda": Length shorter than recommended for a level 1 MOSFET.
Instance "m:x16:x2:x2:x1:x2:§pmoda": Length shorter than recommended for a level 1 MOSFET.
Instance "m:x16:x2:x2:x1:x2:§nmoda": Length shorter than recommended for a level 1 MOSFET.
Instance "m:x16:x2:x2:x1:x3:§pmoda": Length shorter than recommended for a level 1 MOSFET.
Instance "m:x16:x2:x2:x1:x3:§nmodb": Length shorter than recommended for a level 1 MOSFET.
Instance "m:x16:x2:x2:x2:§pmoda": Length shorter than recommended for a level 1 MOSFET.
Instance "m:x16:x2:x2:x2:§nmodb": Length shorter than recommended for a level 1 MOSFET.
Instance "m:x16:x2:x2:x3:§pmoda": Length shorter than recommended for a level 1 MOSFET.
Instance "m:x16:x2:x2:x3:§nmodb": Length shorter than recommended for a level 1 MOSFET.
Instance "m:x16:x2:x3:§pmoda": Length shorter than recommended for a level 1 MOSFET.
Instance "m:x16:x2:x3:§nmodb": Length shorter than recommended for a level 1 MOSFET.
Instance "m:x16:x2:x4:§pmoda": Length shorter than recommended for a level 1 MOSFET.
Instance "m:x16:x2:x4:§nmodb": Length shorter than recommended for a level 1 MOSFET.
Instance "m:x16:x3:x1:x1:x1:§pmoda": Length shorter than recommended for a level 1 MOSFET.
Instance "m:x16:x3:x1:x1:x1:§nmoda": Length shorter than recommended for a level 1 MOSFET.
Instance "m:x16:x3:x1:x1:x2:§pmoda": Length shorter than recommended for a level 1 MOSFET.
Instance "m:x16:x3:x1:x1:x2:§nmoda": Length shorter than recommended for a level 1 MOSFET.
Instance "m:x16:x3:x1:x1:x3:§pmoda": Length shorter than recommended for a level 1 MOSFET.
Instance "m:x16:x3:x1:x1:x3:§nmodb": Length shorter than recommended for a level 1 MOSFET.
Instance "m:x16:x3:x1:x2:§pmoda": Length shorter than recommended for a level 1 MOSFET.
Instance "m:x16:x3:x1:x2:§nmodb": Length shorter than recommended for a level 1 MOSFET.
Instance "m:x16:x3:x1:x3:§pmoda": Length shorter than recommended for a level 1 MOSFET.
Instance "m:x16:x3:x1:x3:§nmodb": Length shorter than recommended for a level 1 MOSFET.
Instance "m:x16:x3:x2:x1:x1:§pmoda": Length shorter than recommended for a level 1 MOSFET.
Instance "m:x16:x3:x2:x1:x1:§nmoda": Length shorter than recommended for a level 1 MOSFET.
Instance "m:x16:x3:x2:x1:x2:§pmoda": Length shorter than recommended for a level 1 MOSFET.
Instance "m:x16:x3:x2:x1:x2:§nmoda": Length shorter than recommended for a level 1 MOSFET.
Instance "m:x16:x3:x2:x1:x3:§pmoda": Length shorter than recommended for a level 1 MOSFET.
Instance "m:x16:x3:x2:x1:x3:§nmodb": Length shorter than recommended for a level 1 MOSFET.
Instance "m:x16:x3:x2:x2:§pmoda": Length shorter than recommended for a level 1 MOSFET.
Instance "m:x16:x3:x2:x2:§nmodb": Length shorter than recommended for a level 1 MOSFET.
Instance "m:x16:x3:x2:x3:§pmoda": Length shorter than recommended for a level 1 MOSFET.
Instance "m:x16:x3:x2:x3:§nmodb": Length shorter than recommended for a level 1 MOSFET.
Instance "m:x16:x3:x3:§pmoda": Length shorter than recommended for a level 1 MOSFET.
Instance "m:x16:x3:x3:§nmodb": Length shorter than recommended for a level 1 MOSFET.
Instance "m:x16:x3:x4:§pmoda": Length shorter than recommended for a level 1 MOSFET.
Instance "m:x16:x3:x4:§nmodb": Length shorter than recommended for a level 1 MOSFET.
Instance "m:x16:x4:x1:x1:x1:§pmoda": Length shorter than recommended for a level 1 MOSFET.
Instance "m:x16:x4:x1:x1:x1:§nmoda": Length shorter than recommended for a level 1 MOSFET.
Instance "m:x16:x4:x1:x1:x2:§pmoda": Length shorter than recommended for a level 1 MOSFET.
Instance "m:x16:x4:x1:x1:x2:§nmoda": Length shorter than recommended for a level 1 MOSFET.
Instance "m:x16:x4:x1:x1:x3:§pmoda": Length shorter than recommended for a level 1 MOSFET.
Instance "m:x16:x4:x1:x1:x3:§nmodb": Length shorter than recommended for a level 1 MOSFET.
Instance "m:x16:x4:x1:x2:§pmoda": Length shorter than recommended for a level 1 MOSFET.
Instance "m:x16:x4:x1:x2:§nmodb": Length shorter than recommended for a level 1 MOSFET.
Instance "m:x16:x4:x1:x3:§pmoda": Length shorter than recommended for a level 1 MOSFET.
Instance "m:x16:x4:x1:x3:§nmodb": Length shorter than recommended for a level 1 MOSFET.
Instance "m:x16:x4:x2:x1:x1:§pmoda": Length shorter than recommended for a level 1 MOSFET.
Instance "m:x16:x4:x2:x1:x1:§nmoda": Length shorter than recommended for a level 1 MOSFET.
Instance "m:x16:x4:x2:x1:x2:§pmoda": Length shorter than recommended for a level 1 MOSFET.
Instance "m:x16:x4:x2:x1:x2:§nmoda": Length shorter than recommended for a level 1 MOSFET.
Instance "m:x16:x4:x2:x1:x3:§pmoda": Length shorter than recommended for a level 1 MOSFET.
Instance "m:x16:x4:x2:x1:x3:§nmodb": Length shorter than recommended for a level 1 MOSFET.
Instance "m:x16:x4:x2:x2:§pmoda": Length shorter than recommended for a level 1 MOSFET.
Instance "m:x16:x4:x2:x2:§nmodb": Length shorter than recommended for a level 1 MOSFET.
Instance "m:x16:x4:x2:x3:§pmoda": Length shorter than recommended for a level 1 MOSFET.
Instance "m:x16:x4:x2:x3:§nmodb": Length shorter than recommended for a level 1 MOSFET.
Instance "m:x16:x4:x3:§pmoda": Length shorter than recommended for a level 1 MOSFET.
Instance "m:x16:x4:x3:§nmodb": Length shorter than recommended for a level 1 MOSFET.
Instance "m:x16:x4:x4:§pmoda": Length shorter than recommended for a level 1 MOSFET.
Instance "m:x16:x4:x4:§nmodb": Length shorter than recommended for a level 1 MOSFET.
Instance "m:x1:x1:x1:§pmoda": Length shorter than recommended for a level 1 MOSFET.
Instance "m:x1:x1:x1:§pmodb": Length shorter than recommended for a level 1 MOSFET.
Instance "m:x1:x1:x1:§nmoda": Length shorter than recommended for a level 1 MOSFET.
Instance "m:x1:x1:x1:§nmodb": Length shorter than recommended for a level 1 MOSFET.
Instance "m:x1:x1:x2:§pmoda": Length shorter than recommended for a level 1 MOSFET.
Instance "m:x1:x1:x2:§nmodb": Length shorter than recommended for a level 1 MOSFET.
Instance "m:x1:x1:x3:§pmoda": Length shorter than recommended for a level 1 MOSFET.
Instance "m:x1:x1:x3:§nmodb": Length shorter than recommended for a level 1 MOSFET.
Instance "m:x1:x3:x1:§pmoda": Length shorter than recommended for a level 1 MOSFET.
Instance "m:x1:x3:x1:§pmodb": Length shorter than recommended for a level 1 MOSFET.
Instance "m:x1:x3:x1:§nmoda": Length shorter than recommended for a level 1 MOSFET.
Instance "m:x1:x3:x1:§nmodb": Length shorter than recommended for a level 1 MOSFET.
Instance "m:x1:x3:x2:§pmoda": Length shorter than recommended for a level 1 MOSFET.
Instance "m:x1:x3:x2:§nmodb": Length shorter than recommended for a level 1 MOSFET.
Instance "m:x1:x3:x3:§pmoda": Length shorter than recommended for a level 1 MOSFET.
Instance "m:x1:x3:x3:§nmodb": Length shorter than recommended for a level 1 MOSFET.
Instance "m:x1:x2:x1:§pmoda": Length shorter than recommended for a level 1 MOSFET.
Instance "m:x1:x2:x1:§pmodb": Length shorter than recommended for a level 1 MOSFET.
Instance "m:x1:x2:x1:§nmoda": Length shorter than recommended for a level 1 MOSFET.
Instance "m:x1:x2:x1:§nmodb": Length shorter than recommended for a level 1 MOSFET.
Instance "m:x1:x2:x2:§pmoda": Length shorter than recommended for a level 1 MOSFET.
Instance "m:x1:x2:x2:§nmodb": Length shorter than recommended for a level 1 MOSFET.
Instance "m:x1:x2:x3:§pmoda": Length shorter than recommended for a level 1 MOSFET.
Instance "m:x1:x2:x3:§nmodb": Length shorter than recommended for a level 1 MOSFET.
Instance "m:x1:x9:x1:§pmoda": Length shorter than recommended for a level 1 MOSFET.
Instance "m:x1:x9:x1:§pmodb": Length shorter than recommended for a level 1 MOSFET.
Instance "m:x1:x9:x1:§nmoda": Length shorter than recommended for a level 1 MOSFET.
Instance "m:x1:x9:x1:§nmodb": Length shorter than recommended for a level 1 MOSFET.
Instance "m:x1:x9:x2:§pmoda": Length shorter than recommended for a level 1 MOSFET.
Instance "m:x1:x9:x2:§nmodb": Length shorter than recommended for a level 1 MOSFET.
Instance "m:x1:x9:x3:§pmoda": Length shorter than recommended for a level 1 MOSFET.
Instance "m:x1:x9:x3:§nmodb": Length shorter than recommended for a level 1 MOSFET.
Instance "m:x1:x12:x1:§pmoda": Length shorter than recommended for a level 1 MOSFET.
Instance "m:x1:x12:x1:§pmodb": Length shorter than recommended for a level 1 MOSFET.
Instance "m:x1:x12:x1:§nmoda": Length shorter than recommended for a level 1 MOSFET.
Instance "m:x1:x12:x1:§nmodb": Length shorter than recommended for a level 1 MOSFET.
Instance "m:x1:x12:x2:§pmoda": Length shorter than recommended for a level 1 MOSFET.
Instance "m:x1:x12:x2:§nmodb": Length shorter than recommended for a level 1 MOSFET.
Instance "m:x1:x13:x1:§pmoda": Length shorter than recommended for a level 1 MOSFET.
Instance "m:x1:x13:x1:§pmodb": Length shorter than recommended for a level 1 MOSFET.
Instance "m:x1:x13:x1:§nmoda": Length shorter than recommended for a level 1 MOSFET.
Instance "m:x1:x13:x1:§nmodb": Length shorter than recommended for a level 1 MOSFET.
Instance "m:x1:x13:x2:§pmoda": Length shorter than recommended for a level 1 MOSFET.
Instance "m:x1:x13:x2:§nmodb": Length shorter than recommended for a level 1 MOSFET.
Instance "m:x1:x14:x1:§pmoda": Length shorter than recommended for a level 1 MOSFET.
Instance "m:x1:x14:x1:§pmodb": Length shorter than recommended for a level 1 MOSFET.
Instance "m:x1:x14:x1:§nmoda": Length shorter than recommended for a level 1 MOSFET.
Instance "m:x1:x14:x1:§nmodb": Length shorter than recommended for a level 1 MOSFET.
Instance "m:x1:x14:x2:§pmoda": Length shorter than recommended for a level 1 MOSFET.
Instance "m:x1:x14:x2:§nmodb": Length shorter than recommended for a level 1 MOSFET.
Instance "m:x1:x15:x1:§pmoda": Length shorter than recommended for a level 1 MOSFET.
Instance "m:x1:x15:x1:§pmodb": Length shorter than recommended for a level 1 MOSFET.
Instance "m:x1:x15:x1:§nmoda": Length shorter than recommended for a level 1 MOSFET.
Instance "m:x1:x15:x1:§nmodb": Length shorter than recommended for a level 1 MOSFET.
Instance "m:x1:x15:x2:§pmoda": Length shorter than recommended for a level 1 MOSFET.
Instance "m:x1:x15:x2:§nmodb": Length shorter than recommended for a level 1 MOSFET.
Instance "m:x1:x4:§pmoda": Length shorter than recommended for a level 1 MOSFET.
Instance "m:x1:x4:§nmodb": Length shorter than recommended for a level 1 MOSFET.
Instance "m:x3:x5:x1:§pmoda": Length shorter than recommended for a level 1 MOSFET.
Instance "m:x3:x5:x1:§nmoda": Length shorter than recommended for a level 1 MOSFET.
Instance "m:x3:x5:x2:§pmoda": Length shorter than recommended for a level 1 MOSFET.
Instance "m:x3:x5:x2:§nmoda": Length shorter than recommended for a level 1 MOSFET.
Instance "m:x3:x5:x3:§pmoda": Length shorter than recommended for a level 1 MOSFET.
Instance "m:x3:x5:x3:§nmodb": Length shorter than recommended for a level 1 MOSFET.
Instance "m:x3:x7:x1:§pmoda": Length shorter than recommended for a level 1 MOSFET.
Instance "m:x3:x7:x1:§nmoda": Length shorter than recommended for a level 1 MOSFET.
Instance "m:x3:x7:x2:§pmoda": Length shorter than recommended for a level 1 MOSFET.
Instance "m:x3:x7:x2:§nmoda": Length shorter than recommended for a level 1 MOSFET.
Instance "m:x3:x7:x3:§pmoda": Length shorter than recommended for a level 1 MOSFET.
Instance "m:x3:x7:x3:§nmodb": Length shorter than recommended for a level 1 MOSFET.
Instance "m:x3:x10:x1:§pmoda": Length shorter than recommended for a level 1 MOSFET.
Instance "m:x3:x10:x1:§nmoda": Length shorter than recommended for a level 1 MOSFET.
Instance "m:x3:x10:x2:§pmoda": Length shorter than recommended for a level 1 MOSFET.
Instance "m:x3:x10:x2:§nmoda": Length shorter than recommended for a level 1 MOSFET.
Instance "m:x3:x10:x3:§pmoda": Length shorter than recommended for a level 1 MOSFET.
Instance "m:x3:x10:x3:§nmodb": Length shorter than recommended for a level 1 MOSFET.
Instance "m:x3:x11:x1:§pmoda": Length shorter than recommended for a level 1 MOSFET.
Instance "m:x3:x11:x1:§nmoda": Length shorter than recommended for a level 1 MOSFET.
Instance "m:x3:x11:x2:§pmoda": Length shorter than recommended for a level 1 MOSFET.
Instance "m:x3:x11:x2:§nmoda": Length shorter than recommended for a level 1 MOSFET.
Instance "m:x3:x11:x3:§pmoda": Length shorter than recommended for a level 1 MOSFET.
Instance "m:x3:x11:x3:§nmodb": Length shorter than recommended for a level 1 MOSFET.
Direct Newton iteration failed to find .op point.  (Use ".option noopiter" to skip.)
Starting Gmin stepping
Gmin = 10
Gmin = 1.07374
Gmin = 0.115292
Gmin = 0.0123794
Gmin = 0.00132923
Gmin = 0.000142725
Gmin = 1.5325e-05
Gmin = 1.6455e-06
Gmin = 1.76685e-07
Gmin = 1.89714e-08
Gmin = 2.03704e-09
Gmin = 2.18725e-10
Gmin = 2.34854e-11
Gmin = 2.52173e-12
Gmin = 2.70769e-13
Gmin = 0
Gmin stepping succeeded in finding the operating point.

Ignoring empty pin current: Ix(x6:vref)
Ignoring empty pin current: Ix(x17:vref)
Ignoring empty pin current: Ix(x6:vref)
Ignoring empty pin current: Ix(x17:vref)
Heightened Def Con from 2.00172e-06 to 2.00172e-06
Heightened Def Con from 2.00172e-06 to 2.00172e-06
Heightened Def Con from 2.00172e-06 to 2.00172e-06
Heightened Def Con from 4.20017e-05 to 4.20017e-05
Heightened Def Con from 4.20017e-05 to 4.20017e-05
Heightened Def Con from 4.20017e-05 to 4.20017e-05
Heightened Def Con from 4.20017e-05 to 4.20017e-05
Heightened Def Con from 4.20017e-05 to 4.20017e-05
Heightened Def Con from 4.20017e-05 to 4.20017e-05
Heightened Def Con from 8.10007e-05 to 8.10007e-05
Heightened Def Con from 0.000102002 to 0.000102002
Heightened Def Con from 0.000102002 to 0.000102002
Heightened Def Con from 0.000102002 to 0.000102002
Heightened Def Con from 0.000102002 to 0.000102002
Heightened Def Con from 0.000102002 to 0.000102002
Heightened Def Con from 0.000102002 to 0.000102002
Heightened Def Con from 0.000122002 to 0.000122002
Heightened Def Con from 0.000122002 to 0.000122002
Heightened Def Con from 0.000122002 to 0.000122002
Heightened Def Con from 0.000141001 to 0.000141001
Heightened Def Con from 0.000142002 to 0.000142002
Heightened Def Con from 0.000142002 to 0.000142002
Heightened Def Con from 0.000142002 to 0.000142002
Heightened Def Con from 0.000162002 to 0.000162002
Heightened Def Con from 0.000162002 to 0.000162002
Heightened Def Con from 0.000162002 to 0.000162002
Heightened Def Con from 0.000181001 to 0.000181001
Heightened Def Con from 0.000201001 to 0.000201001
Heightened Def Con from 0.000221001 to 0.000221001
Heightened Def Con from 0.000222002 to 0.000222002
Heightened Def Con from 0.000222002 to 0.000222002
Heightened Def Con from 0.000222002 to 0.000222002
Heightened Def Con from 0.000222002 to 0.000222002
Heightened Def Con from 0.000262002 to 0.000262002
Heightened Def Con from 0.000262002 to 0.000262002
Heightened Def Con from 0.000262002 to 0.000262002
Heightened Def Con from 0.000262002 to 0.000262002
Heightened Def Con from 0.000262002 to 0.000262002
Heightened Def Con from 0.000262002 to 0.000262002
Heightened Def Con from 0.000262002 to 0.000262002
Heightened Def Con from 0.000300001 to 0.000300001
Heightened Def Con from 0.000302002 to 0.000302002
Heightened Def Con from 0.000302002 to 0.000302002
Heightened Def Con from 0.000302002 to 0.000302002
Heightened Def Con from 0.000302002 to 0.000302002
Heightened Def Con from 0.000302002 to 0.000302002
Heightened Def Con from 0.000302002 to 0.000302002
Heightened Def Con from 0.000302002 to 0.000302002
Heightened Def Con from 0.000313001 to 0.000313001
Heightened Def Con from 0.000362002 to 0.000362002
Heightened Def Con from 0.000362002 to 0.000362002
Heightened Def Con from 0.000362002 to 0.000362002
Heightened Def Con from 0.000362002 to 0.000362002
Heightened Def Con from 0.000362002 to 0.000362002
Heightened Def Con from 0.000362002 to 0.000362002
Heightened Def Con from 0.000362002 to 0.000362002
Heightened Def Con from 0.000397001 to 0.000397001

Date: Sat Jun 10 12:19:08 2023
Total elapsed time: 27.283 seconds.

tnom = 27
temp = 27
method = modified trap
totiter = 340762
traniter = 340347
tranpoints = 65023
accept = 47916
rejected = 17164
matrix size = 383
fillins = 159
solver = Normal
Avg thread counts: 4.0/3.0/3.0/1.0
Matrix Compiler1: 44.13 KB object code size  12.0/4.1/[2.0]
Matrix Compiler2: 46.25 KB object code size  8.2/7.1/[3.2]

