Circuit: * C:\Users\Daniel\Desktop\SAR_ADC_FINALE\Shift_Right_Register_test.asc

Instance "m:x1:x1:x1:x1:§pmoda": Length shorter than recommended for a level 1 MOSFET.
Instance "m:x1:x1:x1:x1:§nmoda": Length shorter than recommended for a level 1 MOSFET.
Instance "m:x1:x1:x1:x2:§pmoda": Length shorter than recommended for a level 1 MOSFET.
Instance "m:x1:x1:x1:x2:§nmoda": Length shorter than recommended for a level 1 MOSFET.
Instance "m:x1:x1:x1:x3:§pmoda": Length shorter than recommended for a level 1 MOSFET.
Instance "m:x1:x1:x1:x3:§nmodb": Length shorter than recommended for a level 1 MOSFET.
Instance "m:x1:x1:x2:§pmoda": Length shorter than recommended for a level 1 MOSFET.
Instance "m:x1:x1:x2:§nmodb": Length shorter than recommended for a level 1 MOSFET.
Instance "m:x1:x1:x3:§pmoda": Length shorter than recommended for a level 1 MOSFET.
Instance "m:x1:x1:x3:§nmodb": Length shorter than recommended for a level 1 MOSFET.
Instance "m:x1:x2:x1:x1:§pmoda": Length shorter than recommended for a level 1 MOSFET.
Instance "m:x1:x2:x1:x1:§nmoda": Length shorter than recommended for a level 1 MOSFET.
Instance "m:x1:x2:x1:x2:§pmoda": Length shorter than recommended for a level 1 MOSFET.
Instance "m:x1:x2:x1:x2:§nmoda": Length shorter than recommended for a level 1 MOSFET.
Instance "m:x1:x2:x1:x3:§pmoda": Length shorter than recommended for a level 1 MOSFET.
Instance "m:x1:x2:x1:x3:§nmodb": Length shorter than recommended for a level 1 MOSFET.
Instance "m:x1:x2:x2:§pmoda": Length shorter than recommended for a level 1 MOSFET.
Instance "m:x1:x2:x2:§nmodb": Length shorter than recommended for a level 1 MOSFET.
Instance "m:x1:x2:x3:§pmoda": Length shorter than recommended for a level 1 MOSFET.
Instance "m:x1:x2:x3:§nmodb": Length shorter than recommended for a level 1 MOSFET.
Instance "m:x1:x3:§pmoda": Length shorter than recommended for a level 1 MOSFET.
Instance "m:x1:x3:§nmodb": Length shorter than recommended for a level 1 MOSFET.
Instance "m:x1:x4:§pmoda": Length shorter than recommended for a level 1 MOSFET.
Instance "m:x1:x4:§nmodb": Length shorter than recommended for a level 1 MOSFET.
Instance "m:x2:x1:x1:x1:§pmoda": Length shorter than recommended for a level 1 MOSFET.
Instance "m:x2:x1:x1:x1:§nmoda": Length shorter than recommended for a level 1 MOSFET.
Instance "m:x2:x1:x1:x2:§pmoda": Length shorter than recommended for a level 1 MOSFET.
Instance "m:x2:x1:x1:x2:§nmoda": Length shorter than recommended for a level 1 MOSFET.
Instance "m:x2:x1:x1:x3:§pmoda": Length shorter than recommended for a level 1 MOSFET.
Instance "m:x2:x1:x1:x3:§nmodb": Length shorter than recommended for a level 1 MOSFET.
Instance "m:x2:x1:x2:§pmoda": Length shorter than recommended for a level 1 MOSFET.
Instance "m:x2:x1:x2:§nmodb": Length shorter than recommended for a level 1 MOSFET.
Instance "m:x2:x1:x3:§pmoda": Length shorter than recommended for a level 1 MOSFET.
Instance "m:x2:x1:x3:§nmodb": Length shorter than recommended for a level 1 MOSFET.
Instance "m:x2:x2:x1:x1:§pmoda": Length shorter than recommended for a level 1 MOSFET.
Instance "m:x2:x2:x1:x1:§nmoda": Length shorter than recommended for a level 1 MOSFET.
Instance "m:x2:x2:x1:x2:§pmoda": Length shorter than recommended for a level 1 MOSFET.
Instance "m:x2:x2:x1:x2:§nmoda": Length shorter than recommended for a level 1 MOSFET.
Instance "m:x2:x2:x1:x3:§pmoda": Length shorter than recommended for a level 1 MOSFET.
Instance "m:x2:x2:x1:x3:§nmodb": Length shorter than recommended for a level 1 MOSFET.
Instance "m:x2:x2:x2:§pmoda": Length shorter than recommended for a level 1 MOSFET.
Instance "m:x2:x2:x2:§nmodb": Length shorter than recommended for a level 1 MOSFET.
Instance "m:x2:x2:x3:§pmoda": Length shorter than recommended for a level 1 MOSFET.
Instance "m:x2:x2:x3:§nmodb": Length shorter than recommended for a level 1 MOSFET.
Instance "m:x2:x3:§pmoda": Length shorter than recommended for a level 1 MOSFET.
Instance "m:x2:x3:§nmodb": Length shorter than recommended for a level 1 MOSFET.
Instance "m:x2:x4:§pmoda": Length shorter than recommended for a level 1 MOSFET.
Instance "m:x2:x4:§nmodb": Length shorter than recommended for a level 1 MOSFET.
Instance "m:x3:x1:x1:x1:§pmoda": Length shorter than recommended for a level 1 MOSFET.
Instance "m:x3:x1:x1:x1:§nmoda": Length shorter than recommended for a level 1 MOSFET.
Instance "m:x3:x1:x1:x2:§pmoda": Length shorter than recommended for a level 1 MOSFET.
Instance "m:x3:x1:x1:x2:§nmoda": Length shorter than recommended for a level 1 MOSFET.
Instance "m:x3:x1:x1:x3:§pmoda": Length shorter than recommended for a level 1 MOSFET.
Instance "m:x3:x1:x1:x3:§nmodb": Length shorter than recommended for a level 1 MOSFET.
Instance "m:x3:x1:x2:§pmoda": Length shorter than recommended for a level 1 MOSFET.
Instance "m:x3:x1:x2:§nmodb": Length shorter than recommended for a level 1 MOSFET.
Instance "m:x3:x1:x3:§pmoda": Length shorter than recommended for a level 1 MOSFET.
Instance "m:x3:x1:x3:§nmodb": Length shorter than recommended for a level 1 MOSFET.
Instance "m:x3:x2:x1:x1:§pmoda": Length shorter than recommended for a level 1 MOSFET.
Instance "m:x3:x2:x1:x1:§nmoda": Length shorter than recommended for a level 1 MOSFET.
Instance "m:x3:x2:x1:x2:§pmoda": Length shorter than recommended for a level 1 MOSFET.
Instance "m:x3:x2:x1:x2:§nmoda": Length shorter than recommended for a level 1 MOSFET.
Instance "m:x3:x2:x1:x3:§pmoda": Length shorter than recommended for a level 1 MOSFET.
Instance "m:x3:x2:x1:x3:§nmodb": Length shorter than recommended for a level 1 MOSFET.
Instance "m:x3:x2:x2:§pmoda": Length shorter than recommended for a level 1 MOSFET.
Instance "m:x3:x2:x2:§nmodb": Length shorter than recommended for a level 1 MOSFET.
Instance "m:x3:x2:x3:§pmoda": Length shorter than recommended for a level 1 MOSFET.
Instance "m:x3:x2:x3:§nmodb": Length shorter than recommended for a level 1 MOSFET.
Instance "m:x3:x3:§pmoda": Length shorter than recommended for a level 1 MOSFET.
Instance "m:x3:x3:§nmodb": Length shorter than recommended for a level 1 MOSFET.
Instance "m:x3:x4:§pmoda": Length shorter than recommended for a level 1 MOSFET.
Instance "m:x3:x4:§nmodb": Length shorter than recommended for a level 1 MOSFET.
Instance "m:x4:x1:x1:x1:§pmoda": Length shorter than recommended for a level 1 MOSFET.
Instance "m:x4:x1:x1:x1:§nmoda": Length shorter than recommended for a level 1 MOSFET.
Instance "m:x4:x1:x1:x2:§pmoda": Length shorter than recommended for a level 1 MOSFET.
Instance "m:x4:x1:x1:x2:§nmoda": Length shorter than recommended for a level 1 MOSFET.
Instance "m:x4:x1:x1:x3:§pmoda": Length shorter than recommended for a level 1 MOSFET.
Instance "m:x4:x1:x1:x3:§nmodb": Length shorter than recommended for a level 1 MOSFET.
Instance "m:x4:x1:x2:§pmoda": Length shorter than recommended for a level 1 MOSFET.
Instance "m:x4:x1:x2:§nmodb": Length shorter than recommended for a level 1 MOSFET.
Instance "m:x4:x1:x3:§pmoda": Length shorter than recommended for a level 1 MOSFET.
Instance "m:x4:x1:x3:§nmodb": Length shorter than recommended for a level 1 MOSFET.
Instance "m:x4:x2:x1:x1:§pmoda": Length shorter than recommended for a level 1 MOSFET.
Instance "m:x4:x2:x1:x1:§nmoda": Length shorter than recommended for a level 1 MOSFET.
Instance "m:x4:x2:x1:x2:§pmoda": Length shorter than recommended for a level 1 MOSFET.
Instance "m:x4:x2:x1:x2:§nmoda": Length shorter than recommended for a level 1 MOSFET.
Instance "m:x4:x2:x1:x3:§pmoda": Length shorter than recommended for a level 1 MOSFET.
Instance "m:x4:x2:x1:x3:§nmodb": Length shorter than recommended for a level 1 MOSFET.
Instance "m:x4:x2:x2:§pmoda": Length shorter than recommended for a level 1 MOSFET.
Instance "m:x4:x2:x2:§nmodb": Length shorter than recommended for a level 1 MOSFET.
Instance "m:x4:x2:x3:§pmoda": Length shorter than recommended for a level 1 MOSFET.
Instance "m:x4:x2:x3:§nmodb": Length shorter than recommended for a level 1 MOSFET.
Instance "m:x4:x3:§pmoda": Length shorter than recommended for a level 1 MOSFET.
Instance "m:x4:x3:§nmodb": Length shorter than recommended for a level 1 MOSFET.
Instance "m:x4:x4:§pmoda": Length shorter than recommended for a level 1 MOSFET.
Instance "m:x4:x4:§nmodb": Length shorter than recommended for a level 1 MOSFET.
Direct Newton iteration for .op point succeeded.

Date: Sat Jun 10 09:23:22 2023
Total elapsed time: 0.661 seconds.

tnom = 27
temp = 27
method = modified trap
totiter = 19683
traniter = 19660
tranpoints = 6400
accept = 4979
rejected = 1421
matrix size = 100
fillins = 8
solver = Normal
Avg thread counts: 1.0/1.1/1.1/1.0
Matrix Compiler1: 8.83 KB object code size  2.2/1.0/[0.4]
Matrix Compiler2: 11.01 KB object code size  1.3/1.7/[0.6]

